MODEL 1
REMARK VINA RESULT:   765.139      0.000      0.000
REMARK INTER + INTRA:         765.139
REMARK INTER:                 765.139
REMARK INTRA:                   0.000
REMARK UNBOUND:                 0.000
REMARK  0 active torsions:
REMARK  status: ('A' for Active; 'I' for Inactive)
REMARK       I    between atoms: N_1  and  CA_5 
REMARK       I    between atoms: CA_5  and  CB_8 
REMARK       I    between atoms: CA_5  and  C_6 
REMARK       I    between atoms: C_6  and  N_15 
REMARK       I    between atoms: CB_8  and  CG_9 
REMARK       I    between atoms: N_15  and  CA_17 
REMARK       I    between atoms: CA_17  and  CB_20 
REMARK       I    between atoms: CA_17  and  C_18 
REMARK       I    between atoms: C_18  and  N_29 
REMARK       I    between atoms: CB_20  and  CG_21 
REMARK       I    between atoms: CZ_26  and  OH_27 
REMARK       I    between atoms: N_29  and  CA_31 
REMARK       I    between atoms: CA_31  and  C_32 
REMARK       I    between atoms: CA_31  and  CB_34 
REMARK       I    between atoms: C_32  and  N_39 
REMARK       I    between atoms: CB_34  and  CG_35 
REMARK       I    between atoms: CG_35  and  CD_36 
REMARK       I    between atoms: N_39  and  CA_41 
REMARK       I    between atoms: CA_41  and  CB_44 
REMARK       I    between atoms: CA_41  and  C_42 
REMARK       I    between atoms: C_42  and  N_56 
REMARK       I    between atoms: CB_44  and  CG_45 
REMARK       I    between atoms: CG_45  and  CD_46 
REMARK       I    between atoms: CD_46  and  NE_47 
REMARK       I    between atoms: NE_47  and  CZ_49 
REMARK       I    between atoms: CZ_49  and  NH1_50 
REMARK       I    between atoms: N_56  and  CA_58 
REMARK       I    between atoms: CA_58  and  C_59 
REMARK       I    between atoms: CA_58  and  CB_61 
REMARK       I    between atoms: C_59  and  N_69 
REMARK       I    between atoms: CB_61  and  CG_62 
REMARK       I    between atoms: N_69  and  CA_71 
REMARK       I    between atoms: CA_71  and  C_72 
REMARK       I    between atoms: CA_71  and  CB_74 
REMARK       I    between atoms: C_72  and  N_77 
REMARK       I    between atoms: N_77  and  CA_79 
REMARK       I    between atoms: CA_79  and  C_80 
REMARK       I    between atoms: CA_79  and  CB_82 
REMARK       I    between atoms: C_80  and  N_86 
REMARK       I    between atoms: CB_82  and  CG_83 
REMARK       I    between atoms: N_86  and  CA_88 
REMARK       I    between atoms: CA_88  and  CB_91 
REMARK       I    between atoms: CA_88  and  C_89 
REMARK       I    between atoms: C_89  and  N_96 
REMARK       I    between atoms: CB_91  and  CG_92 
REMARK       I    between atoms: CG_92  and  CD_93 
REMARK       I    between atoms: N_96  and  CA_98 
REMARK       I    between atoms: CA_98  and  C_99 
REMARK       I    between atoms: CA_98  and  CB_101 
REMARK       I    between atoms: C_99  and  N_110 
REMARK       I    between atoms: CB_101  and  CG_102 
REMARK       I    between atoms: CZ_107  and  OH_108 
REMARK       I    between atoms: N_110  and  CA_112 
REMARK       I    between atoms: CA_112  and  C_113 
REMARK       I    between atoms: CA_112  and  CB_115 
REMARK       I    between atoms: C_113  and  N_119 
REMARK       I    between atoms: CB_115  and  CG_116 
REMARK       I    between atoms: N_119  and  CA_121 
REMARK       I    between atoms: CA_121  and  C_122 
REMARK       I    between atoms: CA_121  and  CB_124 
REMARK       I    between atoms: C_122  and  N_127 
REMARK       I    between atoms: CB_124  and  OG_125 
REMARK       I    between atoms: N_127  and  CA_129 
REMARK       I    between atoms: CA_129  and  CB_132 
REMARK       I    between atoms: CA_129  and  C_130 
REMARK       I    between atoms: C_130  and  N_136 
REMARK       I    between atoms: CB_132  and  OG1_134 
REMARK       I    between atoms: N_136  and  CA_138 
REMARK       I    between atoms: CA_138  and  CB_141 
REMARK       I    between atoms: CA_138  and  C_139 
REMARK       I    between atoms: C_139  and  N_144 
REMARK       I    between atoms: CB_141  and  OG_142 
REMARK       I    between atoms: N_144  and  CA_146 
REMARK       I    between atoms: CA_146  and  CB_149 
REMARK       I    between atoms: CA_146  and  C_147 
REMARK       I    between atoms: C_147  and  N_157 
REMARK       I    between atoms: CB_149  and  CG_150 
REMARK       I    between atoms: CG_150  and  CD_151 
REMARK       I    between atoms: CD_151  and  CE_152 
REMARK       I    between atoms: CE_152  and  NZ_153 
REMARK       I    between atoms: N_157  and  CA_159 
REMARK       I    between atoms: CA_159  and  C_160 
REMARK       I    between atoms: CA_159  and  CB_162 
REMARK       I    between atoms: C_160  and  N_166 
REMARK       I    between atoms: CB_162  and  CG_163 
REMARK       I    between atoms: N_166  and  CA_168 
REMARK       I    between atoms: CA_168  and  CB_171 
REMARK       I    between atoms: CA_168  and  C_169 
REMARK       I    between atoms: C_169  and  N_174 
REMARK       I    between atoms: CB_171  and  OG_172 
REMARK       I    between atoms: N_174  and  CA_176 
REMARK       I    between atoms: CA_176  and  C_177 
REMARK       I    between atoms: CA_176  and  CB_179 
REMARK       I    between atoms: C_177  and  N_184 
REMARK       I    between atoms: CB_179  and  CG_180 
REMARK       I    between atoms: CG_180  and  CD_181 
REMARK       I    between atoms: N_184  and  CA_186 
REMARK       I    between atoms: CA_186  and  C_187 
REMARK       I    between atoms: CA_186  and  CB_189 
REMARK       I    between atoms: C_187  and  N_195 
REMARK       I    between atoms: CB_189  and  CG_190 
REMARK       I    between atoms: CG_190  and  ND2_191 
REMARK       I    between atoms: N_195  and  CA_197 
REMARK       I    between atoms: CA_197  and  CB_200 
REMARK       I    between atoms: CA_197  and  C_198 
REMARK       I    between atoms: C_198  and  N_203 
REMARK       I    between atoms: N_203  and  CA_205 
REMARK       I    between atoms: CA_205  and  CB_208 
REMARK       I    between atoms: CA_205  and  C_206 
REMARK       I    between atoms: CB_208  and  CG1_209 
ROOT
ATOM      1  N   PHE A   1      -0.988  -6.609  -9.774  1.00 66.69    -0.057 N 
ATOM      2  HN1 PHE A   1      -1.079  -7.296  -9.026  1.00  0.00     0.276 HD
ATOM      3  HN2 PHE A   1      -0.044  -6.226  -9.824  1.00  0.00     0.276 HD
ATOM      4  HN3 PHE A   1      -1.024  -7.046 -10.695  1.00  0.00     0.276 HD
ATOM      5  CA  PHE A   1      -1.992  -5.557  -9.634  1.00 66.69     0.259 C 
ATOM      6  C   PHE A   1      -3.394  -6.148  -9.639  1.00 66.69     0.259 C 
ATOM      7  O   PHE A   1      -4.339  -5.525  -9.142  1.00 66.69    -0.271 OA
ATOM      8  CB  PHE A   1      -1.856  -4.527 -10.757  1.00 66.69     0.066 C 
ATOM      9  CG  PHE A   1      -2.839  -3.393 -10.664  1.00 66.69    -0.020 A 
ATOM     10  CD1 PHE A   1      -3.969  -3.367 -11.473  1.00 66.69    -0.004 A 
ATOM     11  CD2 PHE A   1      -2.635  -2.351  -9.769  1.00 66.69    -0.004 A 
ATOM     12  CE1 PHE A   1      -4.880  -2.318 -11.390  1.00 66.69    -0.000 A 
ATOM     13  CE2 PHE A   1      -3.537  -1.298  -9.682  1.00 66.69    -0.000 A 
ATOM     14  CZ  PHE A   1      -4.660  -1.284 -10.493  1.00 66.69    -0.000 A 
ATOM     15  N   TYR A   2      -3.802  -7.411 -10.024  1.00 67.44    -0.337 N 
ATOM     16  HN  TYR A   2      -3.001  -8.016 -10.203  1.00  0.00     0.164 HD
ATOM     17  CA  TYR A   2      -5.056  -8.124 -10.247  1.00 67.44     0.164 C 
ATOM     18  C   TYR A   2      -5.620  -8.653  -8.934  1.00 67.44     0.251 C 
ATOM     19  O   TYR A   2      -6.837  -8.651  -8.730  1.00 67.44    -0.271 OA
ATOM     20  CB  TYR A   2      -4.851  -9.280 -11.230  1.00 67.44     0.058 C 
ATOM     21  CG  TYR A   2      -5.084  -8.899 -12.672  1.00 67.44    -0.020 A 
ATOM     22  CD1 TYR A   2      -6.370  -8.883 -13.207  1.00 67.44    -0.002 A 
ATOM     23  CD2 TYR A   2      -4.025  -8.556 -13.502  1.00 67.44    -0.002 A 
ATOM     24  CE1 TYR A   2      -6.593  -8.537 -14.535  1.00 67.44     0.024 A 
ATOM     25  CE2 TYR A   2      -4.236  -8.206 -14.830  1.00 67.44     0.024 A 
ATOM     26  CZ  TYR A   2      -5.522  -8.198 -15.339  1.00 67.44     0.089 A 
ATOM     27  OH  TYR A   2      -5.733  -7.852 -16.653  1.00 67.44    -0.359 OA
ATOM     28  HH  TYR A   2      -4.996  -7.619 -17.206  1.00  0.00     0.217 HD
ATOM     29  N   GLU A   3      -4.747  -9.014  -8.033  1.00 75.88    -0.337 N 
ATOM     30  HN  GLU A   3      -3.757  -8.799  -8.150  1.00  0.00     0.164 HD
ATOM     31  CA  GLU A   3      -5.221  -9.731  -6.855  1.00 75.88     0.160 C 
ATOM     32  C   GLU A   3      -6.032  -8.817  -5.941  1.00 75.88     0.251 C 
ATOM     33  O   GLU A   3      -7.095  -9.209  -5.447  1.00 75.88    -0.271 OA
ATOM     34  CB  GLU A   3      -4.044 -10.334  -6.083  1.00 75.88     0.043 C 
ATOM     35  CG  GLU A   3      -3.471 -11.592  -6.720  1.00 75.88     0.100 C 
ATOM     36  CD  GLU A   3      -2.373 -12.235  -5.895  1.00 75.88     0.185 C 
ATOM     37  OE1 GLU A   3      -2.634 -13.260  -5.222  1.00 75.88    -0.647 OA
ATOM     38  OE2 GLU A   3      -1.235 -11.715  -5.916  1.00 75.88    -0.647 OA
ATOM     39  N   ARG A   4      -5.682  -7.542  -5.652  1.00 79.50    -0.338 N 
ATOM     40  HN  ARG A   4      -4.827  -7.202  -6.094  1.00  0.00     0.164 HD
ATOM     41  CA  ARG A   4      -6.377  -6.594  -4.786  1.00 79.50     0.159 C 
ATOM     42  C   ARG A   4      -7.666  -6.104  -5.433  1.00 79.50     0.251 C 
ATOM     43  O   ARG A   4      -8.685  -5.942  -4.756  1.00 79.50    -0.271 OA
ATOM     44  CB  ARG A   4      -5.471  -5.406  -4.455  1.00 79.50     0.034 C 
ATOM     45  CG  ARG A   4      -6.076  -4.427  -3.461  1.00 79.50     0.027 C 
ATOM     46  CD  ARG A   4      -5.075  -3.364  -3.035  1.00 79.50     0.116 C 
ATOM     47  NE  ARG A   4      -5.673  -2.394  -2.122  1.00 79.50    -0.212 N 
ATOM     48  HE  ARG A   4      -6.685  -2.426  -1.995  1.00  0.00     0.178 HD
ATOM     49  CZ  ARG A   4      -4.994  -1.471  -1.444  1.00 79.50     0.666 C 
ATOM     50  NH1 ARG A   4      -3.675  -1.375  -1.563  1.00 79.50    -0.235 N 
ATOM     51 1HH1 ARG A   4      -3.177  -2.016  -2.182  1.00  0.00     0.174 HD
ATOM     52 2HH1 ARG A   4      -3.155  -0.668  -1.043  1.00  0.00     0.174 HD
ATOM     53  NH2 ARG A   4      -5.641  -0.639  -0.639  1.00 79.50    -0.235 N 
ATOM     54 1HH2 ARG A   4      -6.653  -0.712  -0.548  1.00  0.00     0.174 HD
ATOM     55 2HH2 ARG A   4      -5.121   0.069  -0.120  1.00  0.00     0.174 HD
ATOM     56  N   HIS A   5      -7.714  -5.833  -6.707  1.00 82.31    -0.337 N 
ATOM     57  HN  HIS A   5      -6.862  -5.984  -7.248  1.00  0.00     0.164 HD
ATOM     58  CA  HIS A   5      -8.878  -5.332  -7.425  1.00 82.31     0.165 C 
ATOM     59  C   HIS A   5     -10.018  -6.346  -7.400  1.00 82.31     0.251 C 
ATOM     60  O   HIS A   5     -11.177  -5.977  -7.205  1.00 82.31    -0.271 OA
ATOM     61  CB  HIS A   5      -8.512  -4.992  -8.870  1.00 82.31     0.077 C 
ATOM     62  CG  HIS A   5      -9.635  -4.384  -9.649  1.00 82.31     0.054 A 
ATOM     63  CD2 HIS A   5     -10.072  -3.107  -9.730  1.00 82.31     0.086 A 
ATOM     64  ND1 HIS A   5     -10.460  -5.128 -10.465  1.00 82.31    -0.340 N 
ATOM     65  HD1 HIS A   5     -10.390  -6.134 -10.617  1.00  0.00     0.167 HD
ATOM     66  CE1 HIS A   5     -11.358  -4.328 -11.019  1.00 82.31     0.151 A 
ATOM     67  NE2 HIS A   5     -11.145  -3.098 -10.587  1.00 82.31    -0.336 N 
ATOM     68  HE2 HIS A   5     -11.688  -2.275 -10.848  1.00  0.00     0.168 HD
ATOM     69  N   VAL A   6      -9.618  -7.628  -7.499  1.00 85.62    -0.338 N 
ATOM     70  HN  VAL A   6      -8.625  -7.857  -7.545  1.00  0.00     0.164 HD
ATOM     71  CA  VAL A   6     -10.624  -8.685  -7.540  1.00 85.62     0.159 C 
ATOM     72  C   VAL A   6     -11.272  -8.835  -6.165  1.00 85.62     0.251 C 
ATOM     73  O   VAL A   6     -12.492  -8.976  -6.058  1.00 85.62    -0.271 OA
ATOM     74  CB  VAL A   6     -10.015 -10.031  -7.991  1.00 85.62     0.029 C 
ATOM     75  CG1 VAL A   6     -11.015 -11.169  -7.798  1.00 85.62     0.002 C 
ATOM     76  CG2 VAL A   6      -9.567  -9.951  -9.448  1.00 85.62     0.002 C 
ATOM     77  N   LEU A   7     -10.416  -8.762  -5.108  1.00 85.56    -0.338 N 
ATOM     78  HN  LEU A   7      -9.419  -8.611  -5.258  1.00  0.00     0.164 HD
ATOM     79  CA  LEU A   7     -10.950  -8.905  -3.757  1.00 85.56     0.159 C 
ATOM     80  C   LEU A   7     -11.857  -7.730  -3.405  1.00 85.56     0.251 C 
ATOM     81  O   LEU A   7     -12.897  -7.914  -2.769  1.00 85.56    -0.271 OA
ATOM     82  CB  LEU A   7      -9.812  -9.007  -2.739  1.00 85.56     0.032 C 
ATOM     83  CG  LEU A   7      -9.005 -10.307  -2.754  1.00 85.56     0.002 C 
ATOM     84  CD1 LEU A   7      -7.828 -10.214  -1.790  1.00 85.56     0.000 C 
ATOM     85  CD2 LEU A   7      -9.898 -11.493  -2.398  1.00 85.56     0.000 C 
ATOM     86  N   GLU A   8     -11.410  -6.597  -3.705  1.00 86.44    -0.338 N 
ATOM     87  HN  GLU A   8     -10.480  -6.515  -4.116  1.00  0.00     0.164 HD
ATOM     88  CA  GLU A   8     -12.203  -5.393  -3.473  1.00 86.44     0.160 C 
ATOM     89  C   GLU A   8     -13.533  -5.458  -4.218  1.00 86.44     0.251 C 
ATOM     90  O   GLU A   8     -14.572  -5.073  -3.676  1.00 86.44    -0.271 OA
ATOM     91  CB  GLU A   8     -11.422  -4.146  -3.898  1.00 86.44     0.043 C 
ATOM     92  CG  GLU A   8     -12.089  -2.837  -3.498  1.00 86.44     0.100 C 
ATOM     93  CD  GLU A   8     -11.219  -1.617  -3.753  1.00 86.44     0.185 C 
ATOM     94  OE1 GLU A   8     -11.730  -0.477  -3.660  1.00 86.44    -0.647 OA
ATOM     95  OE2 GLU A   8     -10.019  -1.801  -4.052  1.00 86.44    -0.647 OA
ATOM     96  N   TYR A   9     -13.574  -5.856  -5.533  1.00 86.38    -0.337 N 
ATOM     97  HN  TYR A   9     -12.681  -6.043  -5.990  1.00  0.00     0.164 HD
ATOM     98  CA  TYR A   9     -14.780  -6.034  -6.334  1.00 86.38     0.164 C 
ATOM     99  C   TYR A   9     -15.703  -7.071  -5.707  1.00 86.38     0.251 C 
ATOM    100  O   TYR A   9     -16.911  -6.851  -5.599  1.00 86.38    -0.271 OA
ATOM    101  CB  TYR A   9     -14.420  -6.451  -7.764  1.00 86.38     0.058 C 
ATOM    102  CG  TYR A   9     -15.617  -6.810  -8.611  1.00 86.38    -0.020 A 
ATOM    103  CD1 TYR A   9     -15.969  -8.141  -8.827  1.00 86.38    -0.002 A 
ATOM    104  CD2 TYR A   9     -16.396  -5.819  -9.198  1.00 86.38    -0.002 A 
ATOM    105  CE1 TYR A   9     -17.070  -8.475  -9.608  1.00 86.38     0.024 A 
ATOM    106  CE2 TYR A   9     -17.499  -6.143  -9.980  1.00 86.38     0.024 A 
ATOM    107  CZ  TYR A   9     -17.828  -7.471 -10.179  1.00 86.38     0.089 A 
ATOM    108  OH  TYR A   9     -18.919  -7.798 -10.954  1.00 86.38    -0.359 OA
ATOM    109  HH  TYR A   9     -19.441  -7.107 -11.346  1.00  0.00     0.217 HD
ATOM    110  N   LEU A  10     -15.121  -8.187  -5.338  1.00 83.19    -0.338 N 
ATOM    111  HN  LEU A  10     -14.116  -8.309  -5.459  1.00  0.00     0.164 HD
ATOM    112  CA  LEU A  10     -15.929  -9.251  -4.755  1.00 83.19     0.159 C 
ATOM    113  C   LEU A  10     -16.530  -8.811  -3.425  1.00 83.19     0.251 C 
ATOM    114  O   LEU A  10     -17.650  -9.198  -3.087  1.00 83.19    -0.271 OA
ATOM    115  CB  LEU A  10     -15.085 -10.514  -4.550  1.00 83.19     0.032 C 
ATOM    116  CG  LEU A  10     -14.678 -11.268  -5.815  1.00 83.19     0.002 C 
ATOM    117  CD1 LEU A  10     -13.741 -12.421  -5.467  1.00 83.19     0.000 C 
ATOM    118  CD2 LEU A  10     -15.910 -11.776  -6.556  1.00 83.19     0.000 C 
ATOM    119  N   SER A  11     -15.782  -8.040  -2.688  1.00 85.00    -0.336 N 
ATOM    120  HN  SER A  11     -14.859  -7.768  -3.024  1.00  0.00     0.164 HD
ATOM    121  CA  SER A  11     -16.243  -7.560  -1.390  1.00 85.00     0.189 C 
ATOM    122  C   SER A  11     -17.393  -6.569  -1.546  1.00 85.00     0.254 C 
ATOM    123  O   SER A  11     -18.309  -6.540  -0.723  1.00 85.00    -0.270 OA
ATOM    124  CB  SER A  11     -15.094  -6.903  -0.623  1.00 85.00     0.169 C 
ATOM    125  OG  SER A  11     -14.648  -5.732  -1.284  1.00 85.00    -0.380 OA
ATOM    126  HG  SER A  11     -13.935  -5.324  -0.808  1.00  0.00     0.211 HD
ATOM    127  N   THR A  12     -17.263  -5.762  -2.530  1.00 83.12    -0.336 N 
ATOM    128  HN  THR A  12     -16.449  -5.829  -3.142  1.00  0.00     0.164 HD
ATOM    129  CA  THR A  12     -18.283  -4.747  -2.776  1.00 83.12     0.186 C 
ATOM    130  C   THR A  12     -19.548  -5.378  -3.350  1.00 83.12     0.253 C 
ATOM    131  O   THR A  12     -20.643  -4.833  -3.202  1.00 83.12    -0.270 OA
ATOM    132  CB  THR A  12     -17.767  -3.660  -3.737  1.00 83.12     0.140 C 
ATOM    133  CG2 THR A  12     -16.569  -2.926  -3.146  1.00 83.12     0.034 C 
ATOM    134  OG1 THR A  12     -17.377  -4.270  -4.974  1.00 83.12    -0.382 OA
ATOM    135  HG1 THR A  12     -18.123  -4.727  -5.343  1.00  0.00     0.210 HD
ATOM    136  N   SER A  13     -19.317  -6.391  -4.114  1.00 75.12    -0.335 N 
ATOM    137  HN  SER A  13     -18.362  -6.710  -4.277  1.00  0.00     0.164 HD
ATOM    138  CA  SER A  13     -20.444  -7.075  -4.741  1.00 75.12     0.189 C 
ATOM    139  C   SER A  13     -21.271  -7.840  -3.712  1.00 75.12     0.254 C 
ATOM    140  O   SER A  13     -22.488  -7.954  -3.846  1.00 75.12    -0.270 OA
ATOM    141  CB  SER A  13     -19.954  -8.032  -5.829  1.00 75.12     0.169 C 
ATOM    142  OG  SER A  13     -19.333  -7.318  -6.883  1.00 75.12    -0.380 OA
ATOM    143  HG  SER A  13     -19.029  -7.912  -7.559  1.00  0.00     0.211 HD
ATOM    144  N   LYS A  14     -20.640  -8.476  -2.663  1.00 67.50    -0.337 N 
ATOM    145  HN  LYS A  14     -19.620  -8.473  -2.641  1.00  0.00     0.164 HD
ATOM    146  CA  LYS A  14     -21.351  -9.152  -1.581  1.00 67.50     0.159 C 
ATOM    147  C   LYS A  14     -22.249  -8.180  -0.819  1.00 67.50     0.251 C 
ATOM    148  O   LYS A  14     -23.357  -8.539  -0.414  1.00 67.50    -0.271 OA
ATOM    149  CB  LYS A  14     -20.361  -9.814  -0.622  1.00 67.50     0.032 C 
ATOM    150  CG  LYS A  14     -21.010 -10.765   0.375  1.00 67.50     0.004 C 
ATOM    151  CD  LYS A  14     -19.959 -11.521   1.189  1.00 67.50     0.032 C 
ATOM    152  CE  LYS A  14     -20.606 -12.409   2.241  1.00 67.50     0.206 C 
ATOM    153  NZ  LYS A  14     -19.593 -13.260   2.939  1.00 67.50    -0.064 N 
ATOM    154  HZ1 LYS A  14     -20.027 -13.856   3.645  1.00  0.00     0.275 HD
ATOM    155  HZ2 LYS A  14     -18.843 -12.695   3.338  1.00  0.00     0.275 HD
ATOM    156  HZ3 LYS A  14     -19.045 -13.807   2.276  1.00  0.00     0.275 HD
ATOM    157  N   ASP A  15     -21.893  -6.920  -0.746  1.00 66.69    -0.337 N 
ATOM    158  HN  ASP A  15     -21.022  -6.626  -1.187  1.00  0.00     0.164 HD
ATOM    159  CA  ASP A  15     -22.706  -5.922  -0.050  1.00 66.69     0.170 C 
ATOM    160  C   ASP A  15     -23.823  -5.401  -0.950  1.00 66.69     0.252 C 
ATOM    161  O   ASP A  15     -24.892  -5.032  -0.464  1.00 66.69    -0.271 OA
ATOM    162  CB  ASP A  15     -21.831  -4.760   0.430  1.00 66.69     0.129 C 
ATOM    163  CG  ASP A  15     -20.958  -5.129   1.616  1.00 66.69     0.188 C 
ATOM    164  OD1 ASP A  15     -21.497  -5.349   2.725  1.00 66.69    -0.647 OA
ATOM    165  OD2 ASP A  15     -19.723  -5.191   1.445  1.00 66.69    -0.647 OA
ATOM    166  N   SER A  16     -23.582  -5.476  -2.264  1.00 65.31    -0.336 N 
ATOM    167  HN  SER A  16     -22.749  -5.956  -2.605  1.00  0.00     0.164 HD
ATOM    168  CA  SER A  16     -24.515  -4.871  -3.206  1.00 65.31     0.189 C 
ATOM    169  C   SER A  16     -25.644  -5.834  -3.560  1.00 65.31     0.254 C 
ATOM    170  O   SER A  16     -26.758  -5.404  -3.881  1.00 65.31    -0.270 OA
ATOM    171  CB  SER A  16     -23.790  -4.440  -4.482  1.00 65.31     0.169 C 
ATOM    172  OG  SER A  16     -24.685  -3.825  -5.389  1.00 65.31    -0.380 OA
ATOM    173  HG  SER A  16     -24.234  -3.557  -6.182  1.00  0.00     0.211 HD
ATOM    174  N   GLU A  17     -25.315  -7.232  -3.515  1.00 65.56    -0.337 N 
ATOM    175  HN  GLU A  17     -24.377  -7.534  -3.249  1.00  0.00     0.164 HD
ATOM    176  CA  GLU A  17     -26.342  -8.218  -3.855  1.00 65.56     0.160 C 
ATOM    177  C   GLU A  17     -27.351  -8.378  -2.722  1.00 65.56     0.251 C 
ATOM    178  O   GLU A  17     -28.464  -8.863  -2.939  1.00 65.56    -0.271 OA
ATOM    179  CB  GLU A  17     -25.698  -9.568  -4.182  1.00 65.56     0.043 C 
ATOM    180  CG  GLU A  17     -26.615 -10.519  -4.937  1.00 65.56     0.100 C 
ATOM    181  CD  GLU A  17     -25.935 -11.819  -5.337  1.00 65.56     0.185 C 
ATOM    182  OE1 GLU A  17     -25.960 -12.787  -4.546  1.00 65.56    -0.647 OA
ATOM    183  OE2 GLU A  17     -25.363 -11.869  -6.452  1.00 65.56    -0.647 OA
ATOM    184  N   ASN A  18     -27.248  -7.744  -1.625  1.00 64.50    -0.337 N 
ATOM    185  HN  ASN A  18     -26.431  -7.147  -1.494  1.00  0.00     0.164 HD
ATOM    186  CA  ASN A  18     -28.223  -7.812  -0.542  1.00 64.50     0.169 C 
ATOM    187  C   ASN A  18     -29.140  -6.593  -0.531  1.00 64.50     0.251 C 
ATOM    188  O   ASN A  18     -29.976  -6.447   0.360  1.00 64.50    -0.271 OA
ATOM    189  CB  ASN A  18     -27.517  -7.964   0.807  1.00 64.50     0.119 C 
ATOM    190  CG  ASN A  18     -28.447  -8.444   1.904  1.00 64.50     0.230 C 
ATOM    191  ND2 ASN A  18     -28.609  -7.631   2.939  1.00 64.50    -0.369 N 
ATOM    192 1HD2 ASN A  18     -28.135  -6.730   3.011  1.00  0.00     0.159 HD
ATOM    193 2HD2 ASN A  18     -29.234  -7.954   3.677  1.00  0.00     0.159 HD
ATOM    194  OD1 ASN A  18     -29.021  -9.536   1.817  1.00 64.50    -0.273 OA
ATOM    195  N   VAL A  19     -29.123  -5.689  -1.563  1.00 60.84    -0.338 N 
ATOM    196  HN  VAL A  19     -28.475  -5.800  -2.343  1.00  0.00     0.164 HD
ATOM    197  CA  VAL A  19     -30.052  -4.569  -1.518  1.00 60.84     0.159 C 
ATOM    198  C   VAL A  19     -31.332  -4.931  -2.276  1.00 60.84     0.251 C 
ATOM    199  O   VAL A  19     -32.311  -4.185  -2.241  1.00 60.84    -0.271 OA
ATOM    200  CB  VAL A  19     -29.432  -3.285  -2.110  1.00 60.84     0.029 C 
ATOM    201  CG1 VAL A  19     -30.393  -2.108  -1.985  1.00 60.84     0.002 C 
ATOM    202  CG2 VAL A  19     -28.104  -2.966  -1.413  1.00 60.84     0.002 C 
ATOM    203  N   ILE A  20     -31.808  -6.178  -2.401  1.00 60.78    -0.339 N 
ATOM    204  HN  ILE A  20     -31.155  -6.957  -2.311  1.00  0.00     0.164 HD
ATOM    205  CA  ILE A  20     -33.224  -6.482  -2.660  1.00 60.78     0.145 C 
ATOM    206  C   ILE A  20     -33.841  -7.120  -1.424  1.00 60.78     0.229 C 
ATOM    207  O   ILE A  20     -34.988  -6.818  -1.072  1.00 60.78    -0.286 OA
ATOM    208  CB  ILE A  20     -33.382  -7.411  -3.883  1.00 60.78     0.028 C 
ATOM    209  CG1 ILE A  20     -32.670  -6.819  -5.102  1.00 60.78     0.002 C 
ATOM    210  CG2 ILE A  20     -34.863  -7.658  -4.184  1.00 60.78     0.002 C 
ATOM    211  CD1 ILE A  20     -32.385  -7.826  -6.213  1.00 60.78     0.000 C 
ENDROOT
TORSDOF 88
                                                                                                                                                                                                                                                                                                                                      
ENDMDL
